Version 4
SHEET 1 2056 680
WIRE 480 -160 224 -160
WIRE 560 -160 544 -160
WIRE 608 -160 560 -160
WIRE -496 -96 -576 -96
WIRE -288 -96 -416 -96
WIRE -576 16 -576 -96
WIRE -176 16 -224 16
WIRE -576 32 -576 16
WIRE -288 32 -288 -96
WIRE -224 32 -224 16
WIRE 80 32 32 32
WIRE -176 48 -176 16
WIRE -144 48 -176 48
WIRE -48 48 -64 48
WIRE -32 48 -48 48
WIRE 80 48 80 32
WIRE 128 48 80 48
WIRE 224 48 224 -160
WIRE 224 48 208 48
WIRE 240 48 224 48
WIRE 336 48 304 48
WIRE 464 48 336 48
WIRE 560 64 528 64
WIRE 608 64 608 -160
WIRE 608 64 560 64
WIRE 864 64 784 64
WIRE 944 64 864 64
WIRE 1040 64 1008 64
WIRE 1088 64 1040 64
WIRE 1104 64 1088 64
WIRE 336 80 336 48
WIRE 464 80 432 80
WIRE 608 80 608 64
WIRE 640 80 608 80
WIRE 784 80 784 64
WIRE 784 80 704 80
WIRE 1040 80 1040 64
WIRE 336 96 336 80
WIRE 1104 112 1104 64
WIRE -224 144 -224 112
WIRE -576 176 -576 96
WIRE -432 176 -576 176
WIRE -288 176 -288 112
WIRE -288 176 -432 176
WIRE -48 176 -48 48
WIRE 80 176 80 48
WIRE 80 176 32 176
WIRE 208 176 208 48
WIRE 432 192 432 80
WIRE 448 192 432 192
WIRE 480 192 448 192
WIRE 608 192 608 80
WIRE 608 192 560 192
WIRE 816 192 800 192
WIRE 80 240 80 176
WIRE 80 240 -48 240
WIRE 208 320 208 240
WIRE 288 320 208 320
WIRE 368 320 288 320
WIRE 448 320 448 192
WIRE 288 368 288 320
FLAG 560 64 op1
FLAG 496 32 0
FLAG 496 96 5V
FLAG 1120 -16 0
FLAG 1120 -96 5V
FLAG 1216 -16 0
FLAG 1216 -96 V2
FLAG -224 144 V2
FLAG 1104 176 0
FLAG 1040 160 0
FLAG 1088 64 out
FLAG 336 160 V2
FLAG 288 368 V2
FLAG 864 224 0
FLAG -432 176 0
FLAG 0 0 0
FLAG 0 64 5V
FLAG -32 16 V2
FLAG 80 32 op0
SYMBOL ind2 -240 16 R0
SYMATTR InstName L1
SYMATTR Value 150m
SYMATTR Type ind
SYMBOL res 224 32 R90
WINDOW 0 0 56 VBottom 2
WINDOW 3 32 56 VTop 2
SYMATTR InstName R1
SYMATTR Value 787
SYMBOL voltage -576 0 R0
WINDOW 123 24 124 Left 2
WINDOW 39 0 0 Left 0
SYMATTR Value2 AC 12
SYMATTR InstName V3
SYMATTR Value PULSE(-24V 24 0 0 0 50u 100u)
SYMBOL res 576 208 M270
WINDOW 0 32 56 VTop 2
WINDOW 3 0 56 VBottom 2
SYMATTR InstName R2
SYMATTR Value 200k
SYMBOL Opamps\\LTC6088 496 64 M180
SYMATTR InstName U2
SYMBOL voltage 1120 -112 R0
WINDOW 123 0 0 Left 0
WINDOW 39 0 0 Left 0
SYMATTR InstName V2
SYMATTR Value 5
SYMBOL voltage 1216 -112 R0
WINDOW 123 0 0 Left 0
WINDOW 39 0 0 Left 0
SYMATTR InstName V4
SYMATTR Value 2.5
SYMBOL diode 944 80 R270
WINDOW 0 32 32 VTop 2
WINDOW 3 0 32 VBottom 2
SYMATTR InstName D1
SYMBOL cap 1088 112 R0
SYMATTR InstName C2
SYMATTR Value 10n
SYMBOL res 1024 64 R0
SYMATTR InstName R6
SYMATTR Value 1Meg
SYMBOL cap 704 64 R90
WINDOW 0 0 32 VBottom 2
WINDOW 3 32 32 VTop 2
SYMATTR InstName C3
SYMATTR Value 1000n
SYMBOL cap 304 32 R90
WINDOW 0 0 32 VBottom 2
WINDOW 3 32 32 VTop 2
SYMATTR InstName C4
SYMATTR Value 10n
SYMBOL res 352 176 R180
WINDOW 0 36 76 Left 2
WINDOW 3 36 40 Left 2
SYMATTR InstName R3
SYMATTR Value 15.8k
SYMBOL res 464 304 R90
WINDOW 0 0 56 VBottom 2
WINDOW 3 32 56 VTop 2
SYMATTR InstName R7
SYMATTR Value 2.49k
SYMBOL res 848 48 R0
SYMATTR InstName R4
SYMATTR Value 2.49k
SYMBOL voltage 864 128 R0
WINDOW 123 0 0 Left 0
WINDOW 39 0 0 Left 0
SYMATTR InstName V5
SYMATTR Value 0.4
SYMBOL ind2 -304 16 R0
SYMATTR InstName L2
SYMATTR Value 4m
SYMATTR Type ind
SYMBOL res -400 -112 R90
WINDOW 0 0 56 VBottom 2
WINDOW 3 32 56 VTop 2
SYMATTR InstName R5
SYMATTR Value 1
SYMBOL Opamps\\LTC6088 0 32 M180
SYMATTR InstName U1
SYMBOL res -48 32 R90
WINDOW 0 0 56 VBottom 2
WINDOW 3 32 56 VTop 2
SYMATTR InstName R8
SYMATTR Value 47k
SYMBOL res 48 160 R90
WINDOW 0 0 56 VBottom 2
WINDOW 3 32 56 VTop 2
SYMATTR InstName R9
SYMATTR Value 1Meg
SYMBOL cap -64 176 R0
SYMATTR InstName C5
SYMATTR Value 4.7p
SYMBOL cap 192 176 R0
SYMATTR InstName C6
SYMATTR Value 10n
SYMBOL res 576 -176 R90
WINDOW 0 0 56 VBottom 2
WINDOW 3 32 62 VTop 2
SYMATTR InstName R10
SYMATTR Value 787
TEXT -592 232 Left 2 !.tran 0 4m 0.00m\n;tran 0 300m 280m\n;ac oct 1000 10 1000000\n;dc V3 0.4m 0.00m
TEXT -264 -16 Left 2 !K L1 L2 0.0001
